data_image0
_chemical_formula_structural       Ca4Zr4O12Ca4Zr4O12Ca4Zr4O12
_chemical_formula_sum              "Ca12 Zr12 O36"
_cell_length_a       25.6701
_cell_length_b       8.01738
_cell_length_c       27.4803
_cell_angle_alpha    90
_cell_angle_beta     90
_cell_angle_gamma    90

_space_group_name_H-M_alt    "P 1"
_space_group_IT_number       1

loop_
  _space_group_symop_operation_xyz
  'x, y, z'

loop_
  _atom_site_type_symbol
  _atom_site_label
  _atom_site_symmetry_multiplicity
  _atom_site_fract_x
  _atom_site_fract_y
  _atom_site_fract_z
  _atom_site_occupancy
  Ca  Ca1       1.0  0.51181  0.75000  0.36617  1.0000
  Ca  Ca2       1.0  0.19085  0.25000  0.45312  1.0000
  Ca  Ca3       1.0  0.84208  0.25000  0.40241  1.0000
  Ca  Ca4       1.0  0.86058  0.75000  0.41688  1.0000
  Zr  Zr1       1.0  0.75000  0.00000  0.36390  1.0000
  Zr  Zr2       1.0  0.10133  0.00000  0.40964  1.0000
  Zr  Zr3       1.0  0.10133  0.50000  0.40964  1.0000
  Zr  Zr4       1.0  0.75000  0.50000  0.36390  1.0000
  O   O1        1.0  0.02189  0.05658  0.41839  1.0000
  O   O2        1.0  0.68078  0.94342  0.40090  1.0000
  O   O3        1.0  0.79203  0.94342  0.42748  1.0000
  O   O4        1.0  0.91064  0.05658  0.39181  1.0000
  O   O5        1.0  0.91064  0.44342  0.39181  1.0000
  O   O6        1.0  0.79203  0.55658  0.42748  1.0000
  O   O7        1.0  0.68078  0.55658  0.40090  1.0000
  O   O8        1.0  0.02189  0.44342  0.41839  1.0000
  O   O9        1.0  0.74831  0.25000  0.38725  1.0000
  O   O10       1.0  0.95436  0.75000  0.43204  1.0000
  O   O11       1.0  0.08279  0.75000  0.42539  1.0000
  O   O12       1.0  0.61987  0.25000  0.39390  1.0000
  Ca  Ca5       1.0  0.71448  0.75000  0.45767  1.0000
  Ca  Ca6       1.0  0.39352  0.25000  0.54461  1.0000
  Ca  Ca7       1.0  0.04475  0.25000  0.49391  1.0000
  Ca  Ca8       1.0  0.06324  0.75000  0.50837  1.0000
  Zr  Zr5       1.0  0.95266  0.00000  0.45539  1.0000
  Zr  Zr6       1.0  0.30400  0.00000  0.50114  1.0000
  Zr  Zr7       1.0  0.30400  0.50000  0.50114  1.0000
  Zr  Zr8       1.0  0.95266  0.50000  0.45539  1.0000
  O   O13       1.0  0.22455  0.05658  0.50988  1.0000
  O   O14       1.0  0.88344  0.94342  0.49239  1.0000
  O   O15       1.0  0.99469  0.94342  0.51897  1.0000
  O   O16       1.0  0.11330  0.05658  0.48330  1.0000
  O   O17       1.0  0.11330  0.44342  0.48330  1.0000
  O   O18       1.0  0.99469  0.55658  0.51897  1.0000
  O   O19       1.0  0.88344  0.55658  0.49239  1.0000
  O   O20       1.0  0.22455  0.44342  0.50988  1.0000
  O   O21       1.0  0.95097  0.25000  0.47874  1.0000
  O   O22       1.0  0.15702  0.75000  0.52353  1.0000
  O   O23       1.0  0.28546  0.75000  0.51689  1.0000
  O   O24       1.0  0.82253  0.25000  0.48539  1.0000
  Ca  Ca9       1.0  0.91714  0.75000  0.54916  1.0000
  Ca  Ca10      1.0  0.59618  0.25000  0.63610  1.0000
  Ca  Ca11      1.0  0.24741  0.25000  0.58540  1.0000
  Ca  Ca12      1.0  0.26591  0.75000  0.59986  1.0000
  Zr  Zr9       1.0  0.15533  0.00000  0.54688  1.0000
  Zr  Zr10      1.0  0.50666  0.00000  0.59263  1.0000
  Zr  Zr11      1.0  0.50666  0.50000  0.59263  1.0000
  Zr  Zr12      1.0  0.15533  0.50000  0.54688  1.0000
  O   O25       1.0  0.42721  0.05658  0.60137  1.0000
  O   O26       1.0  0.08611  0.94342  0.58389  1.0000
  O   O27       1.0  0.19735  0.94342  0.61047  1.0000
  O   O28       1.0  0.31596  0.05658  0.57480  1.0000
  O   O29       1.0  0.31596  0.44342  0.57480  1.0000
  O   O30       1.0  0.19735  0.55658  0.61047  1.0000
  O   O31       1.0  0.08611  0.55658  0.58389  1.0000
  O   O32       1.0  0.42721  0.44342  0.60137  1.0000
  O   O33       1.0  0.15363  0.25000  0.57024  1.0000
  O   O34       1.0  0.35968  0.75000  0.61502  1.0000
  O   O35       1.0  0.48812  0.75000  0.60838  1.0000
  O   O36       1.0  0.02520  0.25000  0.57688  1.0000
