# generated using pymatgen
data_CaTi2O5
_symmetry_space_group_name_H-M   Pmmn
_cell_length_a   3.61696897
_cell_length_b   11.60996489
_cell_length_c   4.89801972
_cell_angle_alpha   90.00000000
_cell_angle_beta   90.00000000
_cell_angle_gamma   90.00000000
_symmetry_Int_Tables_number   59
_chemical_formula_structural   CaTi2O5
_chemical_formula_sum   'Ca2 Ti4 O10'
_cell_volume   205.68196781
_cell_formula_units_Z   2
loop_
 _symmetry_equiv_pos_site_id
 _symmetry_equiv_pos_as_xyz
  1  'x, y, z'
  2  '-x, -y, z'
  3  'x+1/2, -y+1/2, -z'
  4  '-x+1/2, y+1/2, -z'
  5  '-x+1/2, -y+1/2, -z'
  6  'x+1/2, y+1/2, -z'
  7  '-x, y, z'
  8  'x, -y, z'
loop_
 _atom_type_symbol
 _atom_type_oxidation_number
  Ca2+  2.0
  Ti4+  4.0
  O2-  -2.0
loop_
 _atom_site_type_symbol
 _atom_site_label
 _atom_site_symmetry_multiplicity
 _atom_site_fract_x
 _atom_site_fract_y
 _atom_site_fract_z
 _atom_site_occupancy
  Ca2+  Ca0  2  0.00000000  0.50000000  0.86213974  1
  Ti4+  Ti1  4  0.00000000  0.15220522  0.60716103  1
  O2-  O2  4  0.00000000  0.12324490  0.95155586  1
  O2-  O3  4  0.00000000  0.32566331  0.53067858  1
  O2-  O4  2  0.00000000  0.00000000  0.46270959  1
