data_image0
_chemical_formula_structural       Ca3Zr4O12Ca3Zr4O12Ca3Zr4O12Ca3Zr4O12Ca3Zr4O12Ca3Zr4O12Ca3Zr4O12Ca3Zr4O12Ca3Zr4O12Ca3Zr4O12Ca3Zr4O12Ca3Zr4O12Ca3Zr4O12Ca3Zr4O12Ca3Zr4O12Ca3Zr4O12Ca3Zr4O12Ca3Zr4O12Ca3Zr4O12Ca3Zr4O12Ca3Zr4O12Ca3Zr4O12Ca3Zr4O12Ca3Zr4O12Ca3Zr4O12Ca3Zr4O12Ca3Zr4O12
_chemical_formula_sum              "Ca81 Zr108 O324"
_cell_length_a       5.7781
_cell_length_b       8.01738
_cell_length_c       5.58501
_cell_angle_alpha    90
_cell_angle_beta     90
_cell_angle_gamma    90

_space_group_name_H-M_alt    "P 1"
_space_group_IT_number       1

loop_
  _space_group_symop_operation_xyz
  'x, y, z'

loop_
  _atom_site_type_symbol
  _atom_site_label
  _atom_site_symmetry_multiplicity
  _atom_site_fract_x
  _atom_site_fract_y
  _atom_site_fract_z
  _atom_site_occupancy
  Ca  Ca1       1.0  0.05196  0.75000  0.98646  1.0000
  Ca  Ca2       1.0  0.44804  0.25000  0.48646  1.0000
  Ca  Ca3       1.0  0.55196  0.75000  0.51354  1.0000
  Zr  Zr1       1.0  0.00000  0.00000  0.50000  1.0000
  Zr  Zr2       1.0  0.50000  0.00000  0.00000  1.0000
  Zr  Zr3       1.0  0.50000  0.50000  0.00000  1.0000
  Zr  Zr4       1.0  0.00000  0.50000  0.50000  1.0000
  O   O1        1.0  0.20031  0.05658  0.19763  1.0000
  O   O2        1.0  0.79969  0.94342  0.80237  1.0000
  O   O3        1.0  0.29969  0.94342  0.69763  1.0000
  O   O4        1.0  0.70031  0.05658  0.30237  1.0000
  O   O5        1.0  0.70031  0.44342  0.30237  1.0000
  O   O6        1.0  0.29969  0.55658  0.69763  1.0000
  O   O7        1.0  0.79969  0.55658  0.80237  1.0000
  O   O8        1.0  0.20031  0.44342  0.19763  1.0000
  O   O9        1.0  0.04156  0.25000  0.60685  1.0000
  O   O10       1.0  0.95844  0.75000  0.39315  1.0000
  O   O11       1.0  0.45844  0.75000  0.10685  1.0000
  O   O12       1.0  0.54156  0.25000  0.89315  1.0000
  Ca  Ca4       1.0  0.05196  0.75000  0.98646  1.0000
  Ca  Ca5       1.0  0.44804  0.25000  0.48646  1.0000
  Ca  Ca6       1.0  0.55196  0.75000  0.51354  1.0000
  Zr  Zr5       1.0  0.00000  0.00000  0.50000  1.0000
  Zr  Zr6       1.0  0.50000  0.00000  0.00000  1.0000
  Zr  Zr7       1.0  0.50000  0.50000  0.00000  1.0000
  Zr  Zr8       1.0  0.00000  0.50000  0.50000  1.0000
  O   O13       1.0  0.20031  0.05658  0.19763  1.0000
  O   O14       1.0  0.79969  0.94342  0.80237  1.0000
  O   O15       1.0  0.29969  0.94342  0.69763  1.0000
  O   O16       1.0  0.70031  0.05658  0.30237  1.0000
  O   O17       1.0  0.70031  0.44342  0.30237  1.0000
  O   O18       1.0  0.29969  0.55658  0.69763  1.0000
  O   O19       1.0  0.79969  0.55658  0.80237  1.0000
  O   O20       1.0  0.20031  0.44342  0.19763  1.0000
  O   O21       1.0  0.04156  0.25000  0.60685  1.0000
  O   O22       1.0  0.95844  0.75000  0.39315  1.0000
  O   O23       1.0  0.45844  0.75000  0.10685  1.0000
  O   O24       1.0  0.54156  0.25000  0.89315  1.0000
  Ca  Ca7       1.0  0.05196  0.75000  0.98646  1.0000
  Ca  Ca8       1.0  0.44804  0.25000  0.48646  1.0000
  Ca  Ca9       1.0  0.55196  0.75000  0.51354  1.0000
  Zr  Zr9       1.0  0.00000  0.00000  0.50000  1.0000
  Zr  Zr10      1.0  0.50000  0.00000  0.00000  1.0000
  Zr  Zr11      1.0  0.50000  0.50000  0.00000  1.0000
  Zr  Zr12      1.0  0.00000  0.50000  0.50000  1.0000
  O   O25       1.0  0.20031  0.05658  0.19763  1.0000
  O   O26       1.0  0.79969  0.94342  0.80237  1.0000
  O   O27       1.0  0.29969  0.94342  0.69763  1.0000
  O   O28       1.0  0.70031  0.05658  0.30237  1.0000
  O   O29       1.0  0.70031  0.44342  0.30237  1.0000
  O   O30       1.0  0.29969  0.55658  0.69763  1.0000
  O   O31       1.0  0.79969  0.55658  0.80237  1.0000
  O   O32       1.0  0.20031  0.44342  0.19763  1.0000
  O   O33       1.0  0.04156  0.25000  0.60685  1.0000
  O   O34       1.0  0.95844  0.75000  0.39315  1.0000
  O   O35       1.0  0.45844  0.75000  0.10685  1.0000
  O   O36       1.0  0.54156  0.25000  0.89315  1.0000
  Ca  Ca10      1.0  0.05196  0.75000  0.98646  1.0000
  Ca  Ca11      1.0  0.44804  0.25000  0.48646  1.0000
  Ca  Ca12      1.0  0.55196  0.75000  0.51354  1.0000
  Zr  Zr13      1.0  0.00000  0.00000  0.50000  1.0000
  Zr  Zr14      1.0  0.50000  0.00000  0.00000  1.0000
  Zr  Zr15      1.0  0.50000  0.50000  0.00000  1.0000
  Zr  Zr16      1.0  0.00000  0.50000  0.50000  1.0000
  O   O37       1.0  0.20031  0.05658  0.19763  1.0000
  O   O38       1.0  0.79969  0.94342  0.80237  1.0000
  O   O39       1.0  0.29969  0.94342  0.69763  1.0000
  O   O40       1.0  0.70031  0.05658  0.30237  1.0000
  O   O41       1.0  0.70031  0.44342  0.30237  1.0000
  O   O42       1.0  0.29969  0.55658  0.69763  1.0000
  O   O43       1.0  0.79969  0.55658  0.80237  1.0000
  O   O44       1.0  0.20031  0.44342  0.19763  1.0000
  O   O45       1.0  0.04156  0.25000  0.60685  1.0000
  O   O46       1.0  0.95844  0.75000  0.39315  1.0000
  O   O47       1.0  0.45844  0.75000  0.10685  1.0000
  O   O48       1.0  0.54156  0.25000  0.89315  1.0000
  Ca  Ca13      1.0  0.05196  0.75000  0.98646  1.0000
  Ca  Ca14      1.0  0.44804  0.25000  0.48646  1.0000
  Ca  Ca15      1.0  0.55196  0.75000  0.51354  1.0000
  Zr  Zr17      1.0  0.00000  0.00000  0.50000  1.0000
  Zr  Zr18      1.0  0.50000  0.00000  0.00000  1.0000
  Zr  Zr19      1.0  0.50000  0.50000  0.00000  1.0000
  Zr  Zr20      1.0  0.00000  0.50000  0.50000  1.0000
  O   O49       1.0  0.20031  0.05658  0.19763  1.0000
  O   O50       1.0  0.79969  0.94342  0.80237  1.0000
  O   O51       1.0  0.29969  0.94342  0.69763  1.0000
  O   O52       1.0  0.70031  0.05658  0.30237  1.0000
  O   O53       1.0  0.70031  0.44342  0.30237  1.0000
  O   O54       1.0  0.29969  0.55658  0.69763  1.0000
  O   O55       1.0  0.79969  0.55658  0.80237  1.0000
  O   O56       1.0  0.20031  0.44342  0.19763  1.0000
  O   O57       1.0  0.04156  0.25000  0.60685  1.0000
  O   O58       1.0  0.95844  0.75000  0.39315  1.0000
  O   O59       1.0  0.45844  0.75000  0.10685  1.0000
  O   O60       1.0  0.54156  0.25000  0.89315  1.0000
  Ca  Ca16      1.0  0.05196  0.75000  0.98646  1.0000
  Ca  Ca17      1.0  0.44804  0.25000  0.48646  1.0000
  Ca  Ca18      1.0  0.55196  0.75000  0.51354  1.0000
  Zr  Zr21      1.0  0.00000  0.00000  0.50000  1.0000
  Zr  Zr22      1.0  0.50000  0.00000  0.00000  1.0000
  Zr  Zr23      1.0  0.50000  0.50000  0.00000  1.0000
  Zr  Zr24      1.0  0.00000  0.50000  0.50000  1.0000
  O   O61       1.0  0.20031  0.05658  0.19763  1.0000
  O   O62       1.0  0.79969  0.94342  0.80237  1.0000
  O   O63       1.0  0.29969  0.94342  0.69763  1.0000
  O   O64       1.0  0.70031  0.05658  0.30237  1.0000
  O   O65       1.0  0.70031  0.44342  0.30237  1.0000
  O   O66       1.0  0.29969  0.55658  0.69763  1.0000
  O   O67       1.0  0.79969  0.55658  0.80237  1.0000
  O   O68       1.0  0.20031  0.44342  0.19763  1.0000
  O   O69       1.0  0.04156  0.25000  0.60685  1.0000
  O   O70       1.0  0.95844  0.75000  0.39315  1.0000
  O   O71       1.0  0.45844  0.75000  0.10685  1.0000
  O   O72       1.0  0.54156  0.25000  0.89315  1.0000
  Ca  Ca19      1.0  0.05196  0.75000  0.98646  1.0000
  Ca  Ca20      1.0  0.44804  0.25000  0.48646  1.0000
  Ca  Ca21      1.0  0.55196  0.75000  0.51354  1.0000
  Zr  Zr25      1.0  0.00000  0.00000  0.50000  1.0000
  Zr  Zr26      1.0  0.50000  0.00000  0.00000  1.0000
  Zr  Zr27      1.0  0.50000  0.50000  0.00000  1.0000
  Zr  Zr28      1.0  0.00000  0.50000  0.50000  1.0000
  O   O73       1.0  0.20031  0.05658  0.19763  1.0000
  O   O74       1.0  0.79969  0.94342  0.80237  1.0000
  O   O75       1.0  0.29969  0.94342  0.69763  1.0000
  O   O76       1.0  0.70031  0.05658  0.30237  1.0000
  O   O77       1.0  0.70031  0.44342  0.30237  1.0000
  O   O78       1.0  0.29969  0.55658  0.69763  1.0000
  O   O79       1.0  0.79969  0.55658  0.80237  1.0000
  O   O80       1.0  0.20031  0.44342  0.19763  1.0000
  O   O81       1.0  0.04156  0.25000  0.60685  1.0000
  O   O82       1.0  0.95844  0.75000  0.39315  1.0000
  O   O83       1.0  0.45844  0.75000  0.10685  1.0000
  O   O84       1.0  0.54156  0.25000  0.89315  1.0000
  Ca  Ca22      1.0  0.05196  0.75000  0.98646  1.0000
  Ca  Ca23      1.0  0.44804  0.25000  0.48646  1.0000
  Ca  Ca24      1.0  0.55196  0.75000  0.51354  1.0000
  Zr  Zr29      1.0  0.00000  0.00000  0.50000  1.0000
  Zr  Zr30      1.0  0.50000  0.00000  0.00000  1.0000
  Zr  Zr31      1.0  0.50000  0.50000  0.00000  1.0000
  Zr  Zr32      1.0  0.00000  0.50000  0.50000  1.0000
  O   O85       1.0  0.20031  0.05658  0.19763  1.0000
  O   O86       1.0  0.79969  0.94342  0.80237  1.0000
  O   O87       1.0  0.29969  0.94342  0.69763  1.0000
  O   O88       1.0  0.70031  0.05658  0.30237  1.0000
  O   O89       1.0  0.70031  0.44342  0.30237  1.0000
  O   O90       1.0  0.29969  0.55658  0.69763  1.0000
  O   O91       1.0  0.79969  0.55658  0.80237  1.0000
  O   O92       1.0  0.20031  0.44342  0.19763  1.0000
  O   O93       1.0  0.04156  0.25000  0.60685  1.0000
  O   O94       1.0  0.95844  0.75000  0.39315  1.0000
  O   O95       1.0  0.45844  0.75000  0.10685  1.0000
  O   O96       1.0  0.54156  0.25000  0.89315  1.0000
  Ca  Ca25      1.0  0.05196  0.75000  0.98646  1.0000
  Ca  Ca26      1.0  0.44804  0.25000  0.48646  1.0000
  Ca  Ca27      1.0  0.55196  0.75000  0.51354  1.0000
  Zr  Zr33      1.0  0.00000  0.00000  0.50000  1.0000
  Zr  Zr34      1.0  0.50000  0.00000  0.00000  1.0000
  Zr  Zr35      1.0  0.50000  0.50000  0.00000  1.0000
  Zr  Zr36      1.0  0.00000  0.50000  0.50000  1.0000
  O   O97       1.0  0.20031  0.05658  0.19763  1.0000
  O   O98       1.0  0.79969  0.94342  0.80237  1.0000
  O   O99       1.0  0.29969  0.94342  0.69763  1.0000
  O   O100      1.0  0.70031  0.05658  0.30237  1.0000
  O   O101      1.0  0.70031  0.44342  0.30237  1.0000
  O   O102      1.0  0.29969  0.55658  0.69763  1.0000
  O   O103      1.0  0.79969  0.55658  0.80237  1.0000
  O   O104      1.0  0.20031  0.44342  0.19763  1.0000
  O   O105      1.0  0.04156  0.25000  0.60685  1.0000
  O   O106      1.0  0.95844  0.75000  0.39315  1.0000
  O   O107      1.0  0.45844  0.75000  0.10685  1.0000
  O   O108      1.0  0.54156  0.25000  0.89315  1.0000
  Ca  Ca28      1.0  0.05196  0.75000  0.98646  1.0000
  Ca  Ca29      1.0  0.44804  0.25000  0.48646  1.0000
  Ca  Ca30      1.0  0.55196  0.75000  0.51354  1.0000
  Zr  Zr37      1.0  0.00000  0.00000  0.50000  1.0000
  Zr  Zr38      1.0  0.50000  0.00000  0.00000  1.0000
  Zr  Zr39      1.0  0.50000  0.50000  0.00000  1.0000
  Zr  Zr40      1.0  0.00000  0.50000  0.50000  1.0000
  O   O109      1.0  0.20031  0.05658  0.19763  1.0000
  O   O110      1.0  0.79969  0.94342  0.80237  1.0000
  O   O111      1.0  0.29969  0.94342  0.69763  1.0000
  O   O112      1.0  0.70031  0.05658  0.30237  1.0000
  O   O113      1.0  0.70031  0.44342  0.30237  1.0000
  O   O114      1.0  0.29969  0.55658  0.69763  1.0000
  O   O115      1.0  0.79969  0.55658  0.80237  1.0000
  O   O116      1.0  0.20031  0.44342  0.19763  1.0000
  O   O117      1.0  0.04156  0.25000  0.60685  1.0000
  O   O118      1.0  0.95844  0.75000  0.39315  1.0000
  O   O119      1.0  0.45844  0.75000  0.10685  1.0000
  O   O120      1.0  0.54156  0.25000  0.89315  1.0000
  Ca  Ca31      1.0  0.05196  0.75000  0.98646  1.0000
  Ca  Ca32      1.0  0.44804  0.25000  0.48646  1.0000
  Ca  Ca33      1.0  0.55196  0.75000  0.51354  1.0000
  Zr  Zr41      1.0  0.00000  0.00000  0.50000  1.0000
  Zr  Zr42      1.0  0.50000  0.00000  0.00000  1.0000
  Zr  Zr43      1.0  0.50000  0.50000  0.00000  1.0000
  Zr  Zr44      1.0  0.00000  0.50000  0.50000  1.0000
  O   O121      1.0  0.20031  0.05658  0.19763  1.0000
  O   O122      1.0  0.79969  0.94342  0.80237  1.0000
  O   O123      1.0  0.29969  0.94342  0.69763  1.0000
  O   O124      1.0  0.70031  0.05658  0.30237  1.0000
  O   O125      1.0  0.70031  0.44342  0.30237  1.0000
  O   O126      1.0  0.29969  0.55658  0.69763  1.0000
  O   O127      1.0  0.79969  0.55658  0.80237  1.0000
  O   O128      1.0  0.20031  0.44342  0.19763  1.0000
  O   O129      1.0  0.04156  0.25000  0.60685  1.0000
  O   O130      1.0  0.95844  0.75000  0.39315  1.0000
  O   O131      1.0  0.45844  0.75000  0.10685  1.0000
  O   O132      1.0  0.54156  0.25000  0.89315  1.0000
  Ca  Ca34      1.0  0.05196  0.75000  0.98646  1.0000
  Ca  Ca35      1.0  0.44804  0.25000  0.48646  1.0000
  Ca  Ca36      1.0  0.55196  0.75000  0.51354  1.0000
  Zr  Zr45      1.0  0.00000  0.00000  0.50000  1.0000
  Zr  Zr46      1.0  0.50000  0.00000  0.00000  1.0000
  Zr  Zr47      1.0  0.50000  0.50000  0.00000  1.0000
  Zr  Zr48      1.0  0.00000  0.50000  0.50000  1.0000
  O   O133      1.0  0.20031  0.05658  0.19763  1.0000
  O   O134      1.0  0.79969  0.94342  0.80237  1.0000
  O   O135      1.0  0.29969  0.94342  0.69763  1.0000
  O   O136      1.0  0.70031  0.05658  0.30237  1.0000
  O   O137      1.0  0.70031  0.44342  0.30237  1.0000
  O   O138      1.0  0.29969  0.55658  0.69763  1.0000
  O   O139      1.0  0.79969  0.55658  0.80237  1.0000
  O   O140      1.0  0.20031  0.44342  0.19763  1.0000
  O   O141      1.0  0.04156  0.25000  0.60685  1.0000
  O   O142      1.0  0.95844  0.75000  0.39315  1.0000
  O   O143      1.0  0.45844  0.75000  0.10685  1.0000
  O   O144      1.0  0.54156  0.25000  0.89315  1.0000
  Ca  Ca37      1.0  0.05196  0.75000  0.98646  1.0000
  Ca  Ca38      1.0  0.44804  0.25000  0.48646  1.0000
  Ca  Ca39      1.0  0.55196  0.75000  0.51354  1.0000
  Zr  Zr49      1.0  0.00000  0.00000  0.50000  1.0000
  Zr  Zr50      1.0  0.50000  0.00000  0.00000  1.0000
  Zr  Zr51      1.0  0.50000  0.50000  0.00000  1.0000
  Zr  Zr52      1.0  0.00000  0.50000  0.50000  1.0000
  O   O145      1.0  0.20031  0.05658  0.19763  1.0000
  O   O146      1.0  0.79969  0.94342  0.80237  1.0000
  O   O147      1.0  0.29969  0.94342  0.69763  1.0000
  O   O148      1.0  0.70031  0.05658  0.30237  1.0000
  O   O149      1.0  0.70031  0.44342  0.30237  1.0000
  O   O150      1.0  0.29969  0.55658  0.69763  1.0000
  O   O151      1.0  0.79969  0.55658  0.80237  1.0000
  O   O152      1.0  0.20031  0.44342  0.19763  1.0000
  O   O153      1.0  0.04156  0.25000  0.60685  1.0000
  O   O154      1.0  0.95844  0.75000  0.39315  1.0000
  O   O155      1.0  0.45844  0.75000  0.10685  1.0000
  O   O156      1.0  0.54156  0.25000  0.89315  1.0000
  Ca  Ca40      1.0  0.05196  0.75000  0.98646  1.0000
  Ca  Ca41      1.0  0.44804  0.25000  0.48646  1.0000
  Ca  Ca42      1.0  0.55196  0.75000  0.51354  1.0000
  Zr  Zr53      1.0  0.00000  0.00000  0.50000  1.0000
  Zr  Zr54      1.0  0.50000  0.00000  0.00000  1.0000
  Zr  Zr55      1.0  0.50000  0.50000  0.00000  1.0000
  Zr  Zr56      1.0  0.00000  0.50000  0.50000  1.0000
  O   O157      1.0  0.20031  0.05658  0.19763  1.0000
  O   O158      1.0  0.79969  0.94342  0.80237  1.0000
  O   O159      1.0  0.29969  0.94342  0.69763  1.0000
  O   O160      1.0  0.70031  0.05658  0.30237  1.0000
  O   O161      1.0  0.70031  0.44342  0.30237  1.0000
  O   O162      1.0  0.29969  0.55658  0.69763  1.0000
  O   O163      1.0  0.79969  0.55658  0.80237  1.0000
  O   O164      1.0  0.20031  0.44342  0.19763  1.0000
  O   O165      1.0  0.04156  0.25000  0.60685  1.0000
  O   O166      1.0  0.95844  0.75000  0.39315  1.0000
  O   O167      1.0  0.45844  0.75000  0.10685  1.0000
  O   O168      1.0  0.54156  0.25000  0.89315  1.0000
  Ca  Ca43      1.0  0.05196  0.75000  0.98646  1.0000
  Ca  Ca44      1.0  0.44804  0.25000  0.48646  1.0000
  Ca  Ca45      1.0  0.55196  0.75000  0.51354  1.0000
  Zr  Zr57      1.0  0.00000  0.00000  0.50000  1.0000
  Zr  Zr58      1.0  0.50000  0.00000  0.00000  1.0000
  Zr  Zr59      1.0  0.50000  0.50000  0.00000  1.0000
  Zr  Zr60      1.0  0.00000  0.50000  0.50000  1.0000
  O   O169      1.0  0.20031  0.05658  0.19763  1.0000
  O   O170      1.0  0.79969  0.94342  0.80237  1.0000
  O   O171      1.0  0.29969  0.94342  0.69763  1.0000
  O   O172      1.0  0.70031  0.05658  0.30237  1.0000
  O   O173      1.0  0.70031  0.44342  0.30237  1.0000
  O   O174      1.0  0.29969  0.55658  0.69763  1.0000
  O   O175      1.0  0.79969  0.55658  0.80237  1.0000
  O   O176      1.0  0.20031  0.44342  0.19763  1.0000
  O   O177      1.0  0.04156  0.25000  0.60685  1.0000
  O   O178      1.0  0.95844  0.75000  0.39315  1.0000
  O   O179      1.0  0.45844  0.75000  0.10685  1.0000
  O   O180      1.0  0.54156  0.25000  0.89315  1.0000
  Ca  Ca46      1.0  0.05196  0.75000  0.98646  1.0000
  Ca  Ca47      1.0  0.44804  0.25000  0.48646  1.0000
  Ca  Ca48      1.0  0.55196  0.75000  0.51354  1.0000
  Zr  Zr61      1.0  0.00000  0.00000  0.50000  1.0000
  Zr  Zr62      1.0  0.50000  0.00000  0.00000  1.0000
  Zr  Zr63      1.0  0.50000  0.50000  0.00000  1.0000
  Zr  Zr64      1.0  0.00000  0.50000  0.50000  1.0000
  O   O181      1.0  0.20031  0.05658  0.19763  1.0000
  O   O182      1.0  0.79969  0.94342  0.80237  1.0000
  O   O183      1.0  0.29969  0.94342  0.69763  1.0000
  O   O184      1.0  0.70031  0.05658  0.30237  1.0000
  O   O185      1.0  0.70031  0.44342  0.30237  1.0000
  O   O186      1.0  0.29969  0.55658  0.69763  1.0000
  O   O187      1.0  0.79969  0.55658  0.80237  1.0000
  O   O188      1.0  0.20031  0.44342  0.19763  1.0000
  O   O189      1.0  0.04156  0.25000  0.60685  1.0000
  O   O190      1.0  0.95844  0.75000  0.39315  1.0000
  O   O191      1.0  0.45844  0.75000  0.10685  1.0000
  O   O192      1.0  0.54156  0.25000  0.89315  1.0000
  Ca  Ca49      1.0  0.05196  0.75000  0.98646  1.0000
  Ca  Ca50      1.0  0.44804  0.25000  0.48646  1.0000
  Ca  Ca51      1.0  0.55196  0.75000  0.51354  1.0000
  Zr  Zr65      1.0  0.00000  0.00000  0.50000  1.0000
  Zr  Zr66      1.0  0.50000  0.00000  0.00000  1.0000
  Zr  Zr67      1.0  0.50000  0.50000  0.00000  1.0000
  Zr  Zr68      1.0  0.00000  0.50000  0.50000  1.0000
  O   O193      1.0  0.20031  0.05658  0.19763  1.0000
  O   O194      1.0  0.79969  0.94342  0.80237  1.0000
  O   O195      1.0  0.29969  0.94342  0.69763  1.0000
  O   O196      1.0  0.70031  0.05658  0.30237  1.0000
  O   O197      1.0  0.70031  0.44342  0.30237  1.0000
  O   O198      1.0  0.29969  0.55658  0.69763  1.0000
  O   O199      1.0  0.79969  0.55658  0.80237  1.0000
  O   O200      1.0  0.20031  0.44342  0.19763  1.0000
  O   O201      1.0  0.04156  0.25000  0.60685  1.0000
  O   O202      1.0  0.95844  0.75000  0.39315  1.0000
  O   O203      1.0  0.45844  0.75000  0.10685  1.0000
  O   O204      1.0  0.54156  0.25000  0.89315  1.0000
  Ca  Ca52      1.0  0.05196  0.75000  0.98646  1.0000
  Ca  Ca53      1.0  0.44804  0.25000  0.48646  1.0000
  Ca  Ca54      1.0  0.55196  0.75000  0.51354  1.0000
  Zr  Zr69      1.0  0.00000  0.00000  0.50000  1.0000
  Zr  Zr70      1.0  0.50000  0.00000  0.00000  1.0000
  Zr  Zr71      1.0  0.50000  0.50000  0.00000  1.0000
  Zr  Zr72      1.0  0.00000  0.50000  0.50000  1.0000
  O   O205      1.0  0.20031  0.05658  0.19763  1.0000
  O   O206      1.0  0.79969  0.94342  0.80237  1.0000
  O   O207      1.0  0.29969  0.94342  0.69763  1.0000
  O   O208      1.0  0.70031  0.05658  0.30237  1.0000
  O   O209      1.0  0.70031  0.44342  0.30237  1.0000
  O   O210      1.0  0.29969  0.55658  0.69763  1.0000
  O   O211      1.0  0.79969  0.55658  0.80237  1.0000
  O   O212      1.0  0.20031  0.44342  0.19763  1.0000
  O   O213      1.0  0.04156  0.25000  0.60685  1.0000
  O   O214      1.0  0.95844  0.75000  0.39315  1.0000
  O   O215      1.0  0.45844  0.75000  0.10685  1.0000
  O   O216      1.0  0.54156  0.25000  0.89315  1.0000
  Ca  Ca55      1.0  0.05196  0.75000  0.98646  1.0000
  Ca  Ca56      1.0  0.44804  0.25000  0.48646  1.0000
  Ca  Ca57      1.0  0.55196  0.75000  0.51354  1.0000
  Zr  Zr73      1.0  0.00000  0.00000  0.50000  1.0000
  Zr  Zr74      1.0  0.50000  0.00000  0.00000  1.0000
  Zr  Zr75      1.0  0.50000  0.50000  0.00000  1.0000
  Zr  Zr76      1.0  0.00000  0.50000  0.50000  1.0000
  O   O217      1.0  0.20031  0.05658  0.19763  1.0000
  O   O218      1.0  0.79969  0.94342  0.80237  1.0000
  O   O219      1.0  0.29969  0.94342  0.69763  1.0000
  O   O220      1.0  0.70031  0.05658  0.30237  1.0000
  O   O221      1.0  0.70031  0.44342  0.30237  1.0000
  O   O222      1.0  0.29969  0.55658  0.69763  1.0000
  O   O223      1.0  0.79969  0.55658  0.80237  1.0000
  O   O224      1.0  0.20031  0.44342  0.19763  1.0000
  O   O225      1.0  0.04156  0.25000  0.60685  1.0000
  O   O226      1.0  0.95844  0.75000  0.39315  1.0000
  O   O227      1.0  0.45844  0.75000  0.10685  1.0000
  O   O228      1.0  0.54156  0.25000  0.89315  1.0000
  Ca  Ca58      1.0  0.05196  0.75000  0.98646  1.0000
  Ca  Ca59      1.0  0.44804  0.25000  0.48646  1.0000
  Ca  Ca60      1.0  0.55196  0.75000  0.51354  1.0000
  Zr  Zr77      1.0  0.00000  0.00000  0.50000  1.0000
  Zr  Zr78      1.0  0.50000  0.00000  0.00000  1.0000
  Zr  Zr79      1.0  0.50000  0.50000  0.00000  1.0000
  Zr  Zr80      1.0  0.00000  0.50000  0.50000  1.0000
  O   O229      1.0  0.20031  0.05658  0.19763  1.0000
  O   O230      1.0  0.79969  0.94342  0.80237  1.0000
  O   O231      1.0  0.29969  0.94342  0.69763  1.0000
  O   O232      1.0  0.70031  0.05658  0.30237  1.0000
  O   O233      1.0  0.70031  0.44342  0.30237  1.0000
  O   O234      1.0  0.29969  0.55658  0.69763  1.0000
  O   O235      1.0  0.79969  0.55658  0.80237  1.0000
  O   O236      1.0  0.20031  0.44342  0.19763  1.0000
  O   O237      1.0  0.04156  0.25000  0.60685  1.0000
  O   O238      1.0  0.95844  0.75000  0.39315  1.0000
  O   O239      1.0  0.45844  0.75000  0.10685  1.0000
  O   O240      1.0  0.54156  0.25000  0.89315  1.0000
  Ca  Ca61      1.0  0.05196  0.75000  0.98646  1.0000
  Ca  Ca62      1.0  0.44804  0.25000  0.48646  1.0000
  Ca  Ca63      1.0  0.55196  0.75000  0.51354  1.0000
  Zr  Zr81      1.0  0.00000  0.00000  0.50000  1.0000
  Zr  Zr82      1.0  0.50000  0.00000  0.00000  1.0000
  Zr  Zr83      1.0  0.50000  0.50000  0.00000  1.0000
  Zr  Zr84      1.0  0.00000  0.50000  0.50000  1.0000
  O   O241      1.0  0.20031  0.05658  0.19763  1.0000
  O   O242      1.0  0.79969  0.94342  0.80237  1.0000
  O   O243      1.0  0.29969  0.94342  0.69763  1.0000
  O   O244      1.0  0.70031  0.05658  0.30237  1.0000
  O   O245      1.0  0.70031  0.44342  0.30237  1.0000
  O   O246      1.0  0.29969  0.55658  0.69763  1.0000
  O   O247      1.0  0.79969  0.55658  0.80237  1.0000
  O   O248      1.0  0.20031  0.44342  0.19763  1.0000
  O   O249      1.0  0.04156  0.25000  0.60685  1.0000
  O   O250      1.0  0.95844  0.75000  0.39315  1.0000
  O   O251      1.0  0.45844  0.75000  0.10685  1.0000
  O   O252      1.0  0.54156  0.25000  0.89315  1.0000
  Ca  Ca64      1.0  0.05196  0.75000  0.98646  1.0000
  Ca  Ca65      1.0  0.44804  0.25000  0.48646  1.0000
  Ca  Ca66      1.0  0.55196  0.75000  0.51354  1.0000
  Zr  Zr85      1.0  0.00000  0.00000  0.50000  1.0000
  Zr  Zr86      1.0  0.50000  0.00000  0.00000  1.0000
  Zr  Zr87      1.0  0.50000  0.50000  0.00000  1.0000
  Zr  Zr88      1.0  0.00000  0.50000  0.50000  1.0000
  O   O253      1.0  0.20031  0.05658  0.19763  1.0000
  O   O254      1.0  0.79969  0.94342  0.80237  1.0000
  O   O255      1.0  0.29969  0.94342  0.69763  1.0000
  O   O256      1.0  0.70031  0.05658  0.30237  1.0000
  O   O257      1.0  0.70031  0.44342  0.30237  1.0000
  O   O258      1.0  0.29969  0.55658  0.69763  1.0000
  O   O259      1.0  0.79969  0.55658  0.80237  1.0000
  O   O260      1.0  0.20031  0.44342  0.19763  1.0000
  O   O261      1.0  0.04156  0.25000  0.60685  1.0000
  O   O262      1.0  0.95844  0.75000  0.39315  1.0000
  O   O263      1.0  0.45844  0.75000  0.10685  1.0000
  O   O264      1.0  0.54156  0.25000  0.89315  1.0000
  Ca  Ca67      1.0  0.05196  0.75000  0.98646  1.0000
  Ca  Ca68      1.0  0.44804  0.25000  0.48646  1.0000
  Ca  Ca69      1.0  0.55196  0.75000  0.51354  1.0000
  Zr  Zr89      1.0  0.00000  0.00000  0.50000  1.0000
  Zr  Zr90      1.0  0.50000  0.00000  0.00000  1.0000
  Zr  Zr91      1.0  0.50000  0.50000  0.00000  1.0000
  Zr  Zr92      1.0  0.00000  0.50000  0.50000  1.0000
  O   O265      1.0  0.20031  0.05658  0.19763  1.0000
  O   O266      1.0  0.79969  0.94342  0.80237  1.0000
  O   O267      1.0  0.29969  0.94342  0.69763  1.0000
  O   O268      1.0  0.70031  0.05658  0.30237  1.0000
  O   O269      1.0  0.70031  0.44342  0.30237  1.0000
  O   O270      1.0  0.29969  0.55658  0.69763  1.0000
  O   O271      1.0  0.79969  0.55658  0.80237  1.0000
  O   O272      1.0  0.20031  0.44342  0.19763  1.0000
  O   O273      1.0  0.04156  0.25000  0.60685  1.0000
  O   O274      1.0  0.95844  0.75000  0.39315  1.0000
  O   O275      1.0  0.45844  0.75000  0.10685  1.0000
  O   O276      1.0  0.54156  0.25000  0.89315  1.0000
  Ca  Ca70      1.0  0.05196  0.75000  0.98646  1.0000
  Ca  Ca71      1.0  0.44804  0.25000  0.48646  1.0000
  Ca  Ca72      1.0  0.55196  0.75000  0.51354  1.0000
  Zr  Zr93      1.0  0.00000  0.00000  0.50000  1.0000
  Zr  Zr94      1.0  0.50000  0.00000  0.00000  1.0000
  Zr  Zr95      1.0  0.50000  0.50000  0.00000  1.0000
  Zr  Zr96      1.0  0.00000  0.50000  0.50000  1.0000
  O   O277      1.0  0.20031  0.05658  0.19763  1.0000
  O   O278      1.0  0.79969  0.94342  0.80237  1.0000
  O   O279      1.0  0.29969  0.94342  0.69763  1.0000
  O   O280      1.0  0.70031  0.05658  0.30237  1.0000
  O   O281      1.0  0.70031  0.44342  0.30237  1.0000
  O   O282      1.0  0.29969  0.55658  0.69763  1.0000
  O   O283      1.0  0.79969  0.55658  0.80237  1.0000
  O   O284      1.0  0.20031  0.44342  0.19763  1.0000
  O   O285      1.0  0.04156  0.25000  0.60685  1.0000
  O   O286      1.0  0.95844  0.75000  0.39315  1.0000
  O   O287      1.0  0.45844  0.75000  0.10685  1.0000
  O   O288      1.0  0.54156  0.25000  0.89315  1.0000
  Ca  Ca73      1.0  0.05196  0.75000  0.98646  1.0000
  Ca  Ca74      1.0  0.44804  0.25000  0.48646  1.0000
  Ca  Ca75      1.0  0.55196  0.75000  0.51354  1.0000
  Zr  Zr97      1.0  0.00000  0.00000  0.50000  1.0000
  Zr  Zr98      1.0  0.50000  0.00000  0.00000  1.0000
  Zr  Zr99      1.0  0.50000  0.50000  0.00000  1.0000
  Zr  Zr100     1.0  0.00000  0.50000  0.50000  1.0000
  O   O289      1.0  0.20031  0.05658  0.19763  1.0000
  O   O290      1.0  0.79969  0.94342  0.80237  1.0000
  O   O291      1.0  0.29969  0.94342  0.69763  1.0000
  O   O292      1.0  0.70031  0.05658  0.30237  1.0000
  O   O293      1.0  0.70031  0.44342  0.30237  1.0000
  O   O294      1.0  0.29969  0.55658  0.69763  1.0000
  O   O295      1.0  0.79969  0.55658  0.80237  1.0000
  O   O296      1.0  0.20031  0.44342  0.19763  1.0000
  O   O297      1.0  0.04156  0.25000  0.60685  1.0000
  O   O298      1.0  0.95844  0.75000  0.39315  1.0000
  O   O299      1.0  0.45844  0.75000  0.10685  1.0000
  O   O300      1.0  0.54156  0.25000  0.89315  1.0000
  Ca  Ca76      1.0  0.05196  0.75000  0.98646  1.0000
  Ca  Ca77      1.0  0.44804  0.25000  0.48646  1.0000
  Ca  Ca78      1.0  0.55196  0.75000  0.51354  1.0000
  Zr  Zr101     1.0  0.00000  0.00000  0.50000  1.0000
  Zr  Zr102     1.0  0.50000  0.00000  0.00000  1.0000
  Zr  Zr103     1.0  0.50000  0.50000  0.00000  1.0000
  Zr  Zr104     1.0  0.00000  0.50000  0.50000  1.0000
  O   O301      1.0  0.20031  0.05658  0.19763  1.0000
  O   O302      1.0  0.79969  0.94342  0.80237  1.0000
  O   O303      1.0  0.29969  0.94342  0.69763  1.0000
  O   O304      1.0  0.70031  0.05658  0.30237  1.0000
  O   O305      1.0  0.70031  0.44342  0.30237  1.0000
  O   O306      1.0  0.29969  0.55658  0.69763  1.0000
  O   O307      1.0  0.79969  0.55658  0.80237  1.0000
  O   O308      1.0  0.20031  0.44342  0.19763  1.0000
  O   O309      1.0  0.04156  0.25000  0.60685  1.0000
  O   O310      1.0  0.95844  0.75000  0.39315  1.0000
  O   O311      1.0  0.45844  0.75000  0.10685  1.0000
  O   O312      1.0  0.54156  0.25000  0.89315  1.0000
  Ca  Ca79      1.0  0.05196  0.75000  0.98646  1.0000
  Ca  Ca80      1.0  0.44804  0.25000  0.48646  1.0000
  Ca  Ca81      1.0  0.55196  0.75000  0.51354  1.0000
  Zr  Zr105     1.0  0.00000  0.00000  0.50000  1.0000
  Zr  Zr106     1.0  0.50000  0.00000  0.00000  1.0000
  Zr  Zr107     1.0  0.50000  0.50000  0.00000  1.0000
  Zr  Zr108     1.0  0.00000  0.50000  0.50000  1.0000
  O   O313      1.0  0.20031  0.05658  0.19763  1.0000
  O   O314      1.0  0.79969  0.94342  0.80237  1.0000
  O   O315      1.0  0.29969  0.94342  0.69763  1.0000
  O   O316      1.0  0.70031  0.05658  0.30237  1.0000
  O   O317      1.0  0.70031  0.44342  0.30237  1.0000
  O   O318      1.0  0.29969  0.55658  0.69763  1.0000
  O   O319      1.0  0.79969  0.55658  0.80237  1.0000
  O   O320      1.0  0.20031  0.44342  0.19763  1.0000
  O   O321      1.0  0.04156  0.25000  0.60685  1.0000
  O   O322      1.0  0.95844  0.75000  0.39315  1.0000
  O   O323      1.0  0.45844  0.75000  0.10685  1.0000
  O   O324      1.0  0.54156  0.25000  0.89315  1.0000
