# generated using pymatgen
data_Ca3HfZr4O12
_symmetry_space_group_name_H-M   'P 1'
_cell_length_a   5.77809678
_cell_length_b   8.01738023
_cell_length_c   5.58500572
_cell_angle_alpha   90.00000000
_cell_angle_beta   90.00000000
_cell_angle_gamma   90.00000000
_symmetry_Int_Tables_number   1
_chemical_formula_structural   Ca3HfZr4O12
_chemical_formula_sum   'Ca3 Hf1 Zr4 O12'
_cell_volume   258.72650079
_cell_formula_units_Z   1
loop_
 _symmetry_equiv_pos_site_id
 _symmetry_equiv_pos_as_xyz
  1  'x, y, z'
loop_
 _atom_site_type_symbol
 _atom_site_label
 _atom_site_symmetry_multiplicity
 _atom_site_fract_x
 _atom_site_fract_y
 _atom_site_fract_z
 _atom_site_occupancy
  Ca2+  Ca0  1  0.05195810  0.75000000  0.98645642  1.0
  Ca2+  Ca0  1  0.94804190  0.25000000  0.01354358  1.0
  Hf  Hf2  1  0.44804190  0.25000000  0.48645642  1
  Ca2+  Ca0  1  0.55195810  0.75000000  0.51354358  1.0
  Zr4+  Zr1  1  0.00000000  0.00000000  0.50000000  1.0
  Zr4+  Zr1  1  0.50000000  0.00000000  0.00000000  1.0
  Zr4+  Zr1  1  0.50000000  0.50000000  0.00000000  1.0
  Zr4+  Zr1  1  0.00000000  0.50000000  0.50000000  1.0
  O2-  O2  1  0.20030789  0.05658449  0.19762518  1.0
  O2-  O2  1  0.79969211  0.94341551  0.80237482  1.0
  O2-  O2  1  0.29969211  0.94341551  0.69762518  1.0
  O2-  O2  1  0.70030789  0.05658449  0.30237482  1.0
  O2-  O2  1  0.70030789  0.44341551  0.30237482  1.0
  O2-  O2  1  0.29969211  0.55658449  0.69762518  1.0
  O2-  O2  1  0.79969211  0.55658449  0.80237482  1.0
  O2-  O2  1  0.20030789  0.44341551  0.19762518  1.0
  O2-  O3  1  0.04155889  0.25000000  0.60684618  1.0
  O2-  O3  1  0.95844111  0.75000000  0.39315382  1.0
  O2-  O3  1  0.45844111  0.75000000  0.10684618  1.0
  O2-  O3  1  0.54155889  0.25000000  0.89315382  1.0
