data_image0
_chemical_formula_structural       Ca3Zr4O12TiCa3Zr4O12TiCa3Zr4O12TiCa3Zr4O12TiCa3Zr4O12TiCa3Zr4O12TiCa3Zr4O12TiCa3Zr4O12Ti
_chemical_formula_sum              "Ca24 Zr32 O96 Ti8"
_cell_length_a       5.7781
_cell_length_b       8.01738
_cell_length_c       5.58501
_cell_angle_alpha    90
_cell_angle_beta     90
_cell_angle_gamma    90

_space_group_name_H-M_alt    "P 1"
_space_group_IT_number       1

loop_
  _space_group_symop_operation_xyz
  'x, y, z'

loop_
  _atom_site_type_symbol
  _atom_site_label
  _atom_site_symmetry_multiplicity
  _atom_site_fract_x
  _atom_site_fract_y
  _atom_site_fract_z
  _atom_site_occupancy
  Ca  Ca1       1.0  0.94804  0.25000  0.01354  1.0000
  Ca  Ca2       1.0  0.44804  0.25000  0.48646  1.0000
  Ca  Ca3       1.0  0.55196  0.75000  0.51354  1.0000
  Zr  Zr1       1.0  0.00000  0.00000  0.50000  1.0000
  Zr  Zr2       1.0  0.50000  0.00000  0.00000  1.0000
  Zr  Zr3       1.0  0.50000  0.50000  0.00000  1.0000
  Zr  Zr4       1.0  0.00000  0.50000  0.50000  1.0000
  O   O1        1.0  0.20031  0.05658  0.19763  1.0000
  O   O2        1.0  0.79969  0.94342  0.80237  1.0000
  O   O3        1.0  0.29969  0.94342  0.69763  1.0000
  O   O4        1.0  0.70031  0.05658  0.30237  1.0000
  O   O5        1.0  0.70031  0.44342  0.30237  1.0000
  O   O6        1.0  0.29969  0.55658  0.69763  1.0000
  O   O7        1.0  0.79969  0.55658  0.80237  1.0000
  O   O8        1.0  0.20031  0.44342  0.19763  1.0000
  O   O9        1.0  0.04156  0.25000  0.60685  1.0000
  O   O10       1.0  0.95844  0.75000  0.39315  1.0000
  O   O11       1.0  0.45844  0.75000  0.10685  1.0000
  O   O12       1.0  0.54156  0.25000  0.89315  1.0000
  Ti  Ti1       1.0  0.05192  0.75000  0.98639  1.0000
  Ca  Ca4       1.0  0.94804  0.25000  0.01354  1.0000
  Ca  Ca5       1.0  0.44804  0.25000  0.48646  1.0000
  Ca  Ca6       1.0  0.55196  0.75000  0.51354  1.0000
  Zr  Zr5       1.0  0.00000  0.00000  0.50000  1.0000
  Zr  Zr6       1.0  0.50000  0.00000  0.00000  1.0000
  Zr  Zr7       1.0  0.50000  0.50000  0.00000  1.0000
  Zr  Zr8       1.0  0.00000  0.50000  0.50000  1.0000
  O   O13       1.0  0.20031  0.05658  0.19763  1.0000
  O   O14       1.0  0.79969  0.94342  0.80237  1.0000
  O   O15       1.0  0.29969  0.94342  0.69763  1.0000
  O   O16       1.0  0.70031  0.05658  0.30237  1.0000
  O   O17       1.0  0.70031  0.44342  0.30237  1.0000
  O   O18       1.0  0.29969  0.55658  0.69763  1.0000
  O   O19       1.0  0.79969  0.55658  0.80237  1.0000
  O   O20       1.0  0.20031  0.44342  0.19763  1.0000
  O   O21       1.0  0.04156  0.25000  0.60685  1.0000
  O   O22       1.0  0.95844  0.75000  0.39315  1.0000
  O   O23       1.0  0.45844  0.75000  0.10685  1.0000
  O   O24       1.0  0.54156  0.25000  0.89315  1.0000
  Ti  Ti2       1.0  0.05192  0.75000  0.98639  1.0000
  Ca  Ca7       1.0  0.94804  0.25000  0.01354  1.0000
  Ca  Ca8       1.0  0.44804  0.25000  0.48646  1.0000
  Ca  Ca9       1.0  0.55196  0.75000  0.51354  1.0000
  Zr  Zr9       1.0  0.00000  0.00000  0.50000  1.0000
  Zr  Zr10      1.0  0.50000  0.00000  0.00000  1.0000
  Zr  Zr11      1.0  0.50000  0.50000  0.00000  1.0000
  Zr  Zr12      1.0  0.00000  0.50000  0.50000  1.0000
  O   O25       1.0  0.20031  0.05658  0.19763  1.0000
  O   O26       1.0  0.79969  0.94342  0.80237  1.0000
  O   O27       1.0  0.29969  0.94342  0.69763  1.0000
  O   O28       1.0  0.70031  0.05658  0.30237  1.0000
  O   O29       1.0  0.70031  0.44342  0.30237  1.0000
  O   O30       1.0  0.29969  0.55658  0.69763  1.0000
  O   O31       1.0  0.79969  0.55658  0.80237  1.0000
  O   O32       1.0  0.20031  0.44342  0.19763  1.0000
  O   O33       1.0  0.04156  0.25000  0.60685  1.0000
  O   O34       1.0  0.95844  0.75000  0.39315  1.0000
  O   O35       1.0  0.45844  0.75000  0.10685  1.0000
  O   O36       1.0  0.54156  0.25000  0.89315  1.0000
  Ti  Ti3       1.0  0.05192  0.75000  0.98639  1.0000
  Ca  Ca10      1.0  0.94804  0.25000  0.01354  1.0000
  Ca  Ca11      1.0  0.44804  0.25000  0.48646  1.0000
  Ca  Ca12      1.0  0.55196  0.75000  0.51354  1.0000
  Zr  Zr13      1.0  0.00000  0.00000  0.50000  1.0000
  Zr  Zr14      1.0  0.50000  0.00000  0.00000  1.0000
  Zr  Zr15      1.0  0.50000  0.50000  0.00000  1.0000
  Zr  Zr16      1.0  0.00000  0.50000  0.50000  1.0000
  O   O37       1.0  0.20031  0.05658  0.19763  1.0000
  O   O38       1.0  0.79969  0.94342  0.80237  1.0000
  O   O39       1.0  0.29969  0.94342  0.69763  1.0000
  O   O40       1.0  0.70031  0.05658  0.30237  1.0000
  O   O41       1.0  0.70031  0.44342  0.30237  1.0000
  O   O42       1.0  0.29969  0.55658  0.69763  1.0000
  O   O43       1.0  0.79969  0.55658  0.80237  1.0000
  O   O44       1.0  0.20031  0.44342  0.19763  1.0000
  O   O45       1.0  0.04156  0.25000  0.60685  1.0000
  O   O46       1.0  0.95844  0.75000  0.39315  1.0000
  O   O47       1.0  0.45844  0.75000  0.10685  1.0000
  O   O48       1.0  0.54156  0.25000  0.89315  1.0000
  Ti  Ti4       1.0  0.05192  0.75000  0.98639  1.0000
  Ca  Ca13      1.0  0.94804  0.25000  0.01354  1.0000
  Ca  Ca14      1.0  0.44804  0.25000  0.48646  1.0000
  Ca  Ca15      1.0  0.55196  0.75000  0.51354  1.0000
  Zr  Zr17      1.0  0.00000  0.00000  0.50000  1.0000
  Zr  Zr18      1.0  0.50000  0.00000  0.00000  1.0000
  Zr  Zr19      1.0  0.50000  0.50000  0.00000  1.0000
  Zr  Zr20      1.0  0.00000  0.50000  0.50000  1.0000
  O   O49       1.0  0.20031  0.05658  0.19763  1.0000
  O   O50       1.0  0.79969  0.94342  0.80237  1.0000
  O   O51       1.0  0.29969  0.94342  0.69763  1.0000
  O   O52       1.0  0.70031  0.05658  0.30237  1.0000
  O   O53       1.0  0.70031  0.44342  0.30237  1.0000
  O   O54       1.0  0.29969  0.55658  0.69763  1.0000
  O   O55       1.0  0.79969  0.55658  0.80237  1.0000
  O   O56       1.0  0.20031  0.44342  0.19763  1.0000
  O   O57       1.0  0.04156  0.25000  0.60685  1.0000
  O   O58       1.0  0.95844  0.75000  0.39315  1.0000
  O   O59       1.0  0.45844  0.75000  0.10685  1.0000
  O   O60       1.0  0.54156  0.25000  0.89315  1.0000
  Ti  Ti5       1.0  0.05192  0.75000  0.98639  1.0000
  Ca  Ca16      1.0  0.94804  0.25000  0.01354  1.0000
  Ca  Ca17      1.0  0.44804  0.25000  0.48646  1.0000
  Ca  Ca18      1.0  0.55196  0.75000  0.51354  1.0000
  Zr  Zr21      1.0  0.00000  0.00000  0.50000  1.0000
  Zr  Zr22      1.0  0.50000  0.00000  0.00000  1.0000
  Zr  Zr23      1.0  0.50000  0.50000  0.00000  1.0000
  Zr  Zr24      1.0  0.00000  0.50000  0.50000  1.0000
  O   O61       1.0  0.20031  0.05658  0.19763  1.0000
  O   O62       1.0  0.79969  0.94342  0.80237  1.0000
  O   O63       1.0  0.29969  0.94342  0.69763  1.0000
  O   O64       1.0  0.70031  0.05658  0.30237  1.0000
  O   O65       1.0  0.70031  0.44342  0.30237  1.0000
  O   O66       1.0  0.29969  0.55658  0.69763  1.0000
  O   O67       1.0  0.79969  0.55658  0.80237  1.0000
  O   O68       1.0  0.20031  0.44342  0.19763  1.0000
  O   O69       1.0  0.04156  0.25000  0.60685  1.0000
  O   O70       1.0  0.95844  0.75000  0.39315  1.0000
  O   O71       1.0  0.45844  0.75000  0.10685  1.0000
  O   O72       1.0  0.54156  0.25000  0.89315  1.0000
  Ti  Ti6       1.0  0.05192  0.75000  0.98639  1.0000
  Ca  Ca19      1.0  0.94804  0.25000  0.01354  1.0000
  Ca  Ca20      1.0  0.44804  0.25000  0.48646  1.0000
  Ca  Ca21      1.0  0.55196  0.75000  0.51354  1.0000
  Zr  Zr25      1.0  0.00000  0.00000  0.50000  1.0000
  Zr  Zr26      1.0  0.50000  0.00000  0.00000  1.0000
  Zr  Zr27      1.0  0.50000  0.50000  0.00000  1.0000
  Zr  Zr28      1.0  0.00000  0.50000  0.50000  1.0000
  O   O73       1.0  0.20031  0.05658  0.19763  1.0000
  O   O74       1.0  0.79969  0.94342  0.80237  1.0000
  O   O75       1.0  0.29969  0.94342  0.69763  1.0000
  O   O76       1.0  0.70031  0.05658  0.30237  1.0000
  O   O77       1.0  0.70031  0.44342  0.30237  1.0000
  O   O78       1.0  0.29969  0.55658  0.69763  1.0000
  O   O79       1.0  0.79969  0.55658  0.80237  1.0000
  O   O80       1.0  0.20031  0.44342  0.19763  1.0000
  O   O81       1.0  0.04156  0.25000  0.60685  1.0000
  O   O82       1.0  0.95844  0.75000  0.39315  1.0000
  O   O83       1.0  0.45844  0.75000  0.10685  1.0000
  O   O84       1.0  0.54156  0.25000  0.89315  1.0000
  Ti  Ti7       1.0  0.05192  0.75000  0.98639  1.0000
  Ca  Ca22      1.0  0.94804  0.25000  0.01354  1.0000
  Ca  Ca23      1.0  0.44804  0.25000  0.48646  1.0000
  Ca  Ca24      1.0  0.55196  0.75000  0.51354  1.0000
  Zr  Zr29      1.0  0.00000  0.00000  0.50000  1.0000
  Zr  Zr30      1.0  0.50000  0.00000  0.00000  1.0000
  Zr  Zr31      1.0  0.50000  0.50000  0.00000  1.0000
  Zr  Zr32      1.0  0.00000  0.50000  0.50000  1.0000
  O   O85       1.0  0.20031  0.05658  0.19763  1.0000
  O   O86       1.0  0.79969  0.94342  0.80237  1.0000
  O   O87       1.0  0.29969  0.94342  0.69763  1.0000
  O   O88       1.0  0.70031  0.05658  0.30237  1.0000
  O   O89       1.0  0.70031  0.44342  0.30237  1.0000
  O   O90       1.0  0.29969  0.55658  0.69763  1.0000
  O   O91       1.0  0.79969  0.55658  0.80237  1.0000
  O   O92       1.0  0.20031  0.44342  0.19763  1.0000
  O   O93       1.0  0.04156  0.25000  0.60685  1.0000
  O   O94       1.0  0.95844  0.75000  0.39315  1.0000
  O   O95       1.0  0.45844  0.75000  0.10685  1.0000
  O   O96       1.0  0.54156  0.25000  0.89315  1.0000
  Ti  Ti8       1.0  0.05192  0.75000  0.98639  1.0000
